 This run of the CFX 2020 R2 Solver started at 10:11:29 on 26 Oct 2022
 by user VKis on VD02 (intel_xeon64.sse2_winnt) using the command:
 
  "C:\Program Files\ANSYS Inc\v202\CFX\bin\perllib\cfx5solve.pl"
    -stdout-comms -batch -ccl -
 
 2020 R2
 
  Point Releases and Patches installed:
  ANSYS, Inc. Products 2020 R2
  SpaceClaim 2020 R2
  Autodyn 2020 R2
  CFD-Post only 2020 R2
  CFX (includes CFD-Post) 2020 R2
  Chemkin 2020 R2
  EnSight 2020 R2
  FENSAP-ICE 2020 R2
  Fluent (includes CFD-Post) 2020 R2
  Forte (includes EnSight) 2020 R2
  Polyflow (includes CFD-Post) 2020 R2
  TurboGrid 2020 R2
  ICEM CFD 2020 R2
  Aqwa 2020 R2
  Customization Files for User Programmable Features 2020 R2
  Mechanical Products 2020 R2
  Additive 2020 R2
  Viewer 2020 R2
  ACIS Geometry Interface 2020 R2
  AutoCAD Geometry Interface 2020 R2
  Catia, Version 4 Geometry Interface 2020 R2
  Catia, Version 5 Geometry Interface 2020 R2
  Catia, Version 6 Geometry Interface 2020 R2
  Creo Elements/Direct Modeling Geometry Interface 2020 R2
  Creo Parametric Geometry Interface 2020 R2
  Inventor Geometry Interface 2020 R2
  JTOpen Geometry Interface 2020 R2
  NX Geometry Interface 2020 R2
  Parasolid Geometry Interface  2020 R2
  Solid Edge Geometry Interface 2020 R2
  SOLIDWORKS Geometry Interface 2020 R2
  ANSYS, Inc. License Manager 2020 R2
 
 Setting up CFX Solver run ...
 
 
 +--------------------------------------------------------------------+
 |                                                                    |
 |            Solver Startup: Submit to Windows HPC Queue             |
 |                                                                    |
 +--------------------------------------------------------------------+
 

 +--------------------------------------------------------------------+
 | Starting the ANSYS CFX Solver on vd02 using the command            |
 |                                                                    |
 |   "C:\Program Files\ANSYS Inc\v202\CFX\bin\cfx5perl" "C:\Program - |
 | Files\ANSYS Inc\v202\CFX\etc\cfxwinhpc.pl" -part 192 -indirect-st- |
 | artup-path "\\node01\ANSYS Work\Kislov\Open2_AM_IF_with_Pipe\BL7_- |
 | AM_Hub_Tipcl_GV1_v1_GV2_v1_Impeller_Final_Pipe_100prct_w1_001"     |
 |                                                                    |
 | Please wait.                                                       |
 +--------------------------------------------------------------------+


 +--------------------------------------------------------------------+
 | Processing user options from C:\Users\VKis\.cfx\cfxccs_options.txt |
 |                                                                    |
 |  PATHMAP=C:\Program Files\Ansys Inc;\\node01\Ansys Inc             |
 |  PATHMAP=C:\Users\VKis\Documents;\\node01\ANSYS Work               |
 |  CLUSTERHOST=node01                                                |
 |  ACCOUNT=Uzga404\VKis                                              |
 |  PROCESSORSPERSOLVER=1                                             |
 +--------------------------------------------------------------------+


 +--------------------------------------------------------------------+
 |                           Mapping Paths                            |
 |                                                                    |
 | CFX installation directory                                         |
 |                                                                    |
 |   Original: C:\PROGRAM FILES\ANSYS INC\V202\CFX                    |
 |   Mapped  : \\NODE01\ANSYS INC\V202\CFX                            |
 +--------------------------------------------------------------------+


 +--------------------------------------------------------------------+
 |              Command (job 4707) submitted to: node01               |
 |                                                                    |
 | "\\NODE01\ANSYS INC\V202\CFX\bin\cfx5solve" -start-method MSMPI    |
 | -indirect-startup-path "\\NODE01\ANSYS                             |
 | WORK\KISLOV\OPEN2_AM_IF_WITH_PIPE\BL7_AM_Hub_Tipcl_GV1_v1_GV2_v1_- |
 | Impeller_Final_Pipe_100prct_w1_001"                                |
 +--------------------------------------------------------------------+

 This run of the CFX 2020 R2 Solver started at 10:15:10 on 26 Oct 2022
 by user VKis on NODE02 (intel_xeon64.sse2_winnt).
 
 2020 R2
 
  Point Releases and Patches installed:
  ANSYS, Inc. Products 2020 R2
  SpaceClaim 2020 R2
  Discovery 2020 R2
  AIM 2020 R2
  Live (includes SpaceClaim) 2020 R2
  ANSYS Sherlock 2020 R2
  Autodyn 2020 R2
  LS-DYNA 2020 R2
  CFD-Post only 2020 R2
  CFX (includes CFD-Post) 2020 R2
  Chemkin 2020 R2
  EnSight 2020 R2
  FENSAP-ICE 2020 R2
  Fluent (includes CFD-Post) 2020 R2
  Forte (includes EnSight) 2020 R2
  Polyflow (includes CFD-Post) 2020 R2
  TurboGrid 2020 R2
  ICEM CFD 2020 R2
  Aqwa 2020 R2
  SPEOS 2020 R2
  Customization Files for User Programmable Features 2020 R2
  Mechanical Products 2020 R2
  Additive 2020 R2
  Icepak (includes CFD-Post) 2020 R2
  Remote Solve Manager Standalone Services 2020 R2
  Viewer 2020 R2
  ACIS Geometry Interface 2020 R2
  AutoCAD Geometry Interface 2020 R2
  Catia, Version 4 Geometry Interface 2020 R2
  Catia, Version 5 Geometry Interface 2020 R2
  Catia, Version 6 Geometry Interface 2020 R2
  Creo Elements/Direct Modeling Geometry Interface 2020 R2
  Creo Parametric Geometry Interface 2020 R2
  Inventor Geometry Interface 2020 R2
  JTOpen Geometry Interface 2020 R2
  NX Geometry Interface 2020 R2
  Parasolid Geometry Interface  2020 R2
  Solid Edge Geometry Interface 2020 R2
  SOLIDWORKS Geometry Interface 2020 R2
  ANSYS, Inc. License Manager 2020 R2
 
 Setting up CFX Solver run ...
 
 
 +--------------------------------------------------------------------+
 |                                                                    |
 |                    CFX Command Language for Run                    |
 |                                                                    |
 +--------------------------------------------------------------------+
 
 LIBRARY:
   CEL:
     EXPRESSIONS:
       ENTER Initial Inlet Ptot = 101325 [Pa]
       ENTER Initial Inlet Ttot = 288 [K]
       ENTER Target Exit Ps = 650000 [Pa]
       InletMassFlow = massFlow()@Inlet
       Mechanical Speed = 54277[rev min^-1]
       Monitor Max Mach = maxVal(Mach)@Impeller
       Monitor PR = (massFlowAve(ptotstn )@Exit)/(massFlowAve(ptotstn )@Inlet)
       Monitor TR = (massFlowAve(Ttotstn )@Exit )/(massFlowAve(Ttotstn \
         )@Inlet )
       Monitor Wext = massFlow()@Exit*(-20)
       Monitor Winlet = massFlow()@Inlet*11
       PSRamp = ENTER Initial Inlet Ptot +(ENTER Target Exit Ps -ENTER \
         Initial Inlet Ptot )*Ramp Omega(aitern) ^3
       Tbleed = (massFlowAve(Total Temperature in Stn Frame \
         )@Outlet-massFlowAve(Total Temperature in Stn Frame \
         )@Inlet)/(massFlowAve(Total Temperature in Stn Frame )@Mix2 Side \
         1-massFlowAve(Total Temperature in Stn Frame )@Inlet)
       Timestep = (1.0[rad]/Mechanical Speed )*Timestep Multiplier(aitern)
       Wbleed = -massFlow()@Outlet/massFlow()@Inlet
       radius = (y^2+x^2)^0.5
     END
     FUNCTION: Alpha Profile
       Argument Units = [mm]
       Option = Interpolation
       Result Units = [deg]
       INTERPOLATION DATA:
         Data Pairs = 25,0,70,0
         Extend Max = Yes
         Extend Min = Yes
         Option = One Dimensional
       END
     END
     FUNCTION: Phi Profile
       Argument Units = [mm]
       Option = Interpolation
       Result Units = [deg]
       INTERPOLATION DATA:
         Data Pairs = 25,0,70,0
         Extend Max = Yes
         Extend Min = Yes
         Option = One Dimensional
       END
     END
     FUNCTION: Ptabs Profile
       Argument Units = [mm]
       Option = Interpolation
       Result Units = [Pa]
       INTERPOLATION DATA:
         Data Pairs = 25,99326,70,99326
         Extend Max = Yes
         Extend Min = Yes
         Option = One Dimensional
       END
     END
     FUNCTION: Ramp Omega
       Argument Units = []
       Option = Interpolation
       Result Units = []
       INTERPOLATION DATA:
         Data Pairs = 1,0.25,20,0.75,50,1.0,100,1.0
         Extend Max = Yes
         Extend Min = Yes
         Option = One Dimensional
       END
     END
     FUNCTION: Timestep Multiplier
       Argument Units = []
       Option = Interpolation
       Result Units = []
       INTERPOLATION DATA:
         Data Pairs = 1,0.025,10,1.0,100,1.0
         Extend Max = Yes
         Extend Min = Yes
         Option = One Dimensional
       END
     END
     FUNCTION: Tt Profile
       Argument Units = [mm]
       Option = Interpolation
       Result Units = [K]
       INTERPOLATION DATA:
         Data Pairs = 25,290,70,290
         Extend Max = Yes
         Extend Min = Yes
         Option = One Dimensional
       END
     END
   END
   MATERIAL: Air Ideal Gas Real
     Material Description = Air Ideal Gas Real
     Material Group = User
     Option = Pure Substance
     Thermodynamic State = Gas
     PROPERTIES:
       Option = General Material
       EQUATION OF STATE:
         Molar Mass = 28.96 [kg kmol^-1]
         Option = Ideal Gas
       END
       SPECIFIC HEAT CAPACITY:
         Option = NASA Format
         LOWER INTERVAL COEFFICIENTS:
           NASA a1 = 3.56839620E+00 []
           NASA a2 = -6.78729429E-04 [K^-1]
           NASA a3 = 1.55371476E-06 [K^-2]
           NASA a4 = -3.29937060E-12 [K^-3]
           NASA a5 = -4.66395387E-13 [K^-4]
           NASA a6 = -1.06234659E+03 [K]
           NASA a7 = 3.71582965E+00 []
         END
         TEMPERATURE LIMITS:
           Lower Temperature = 200 [K]
           Midpoint Temperature = 1000 [K]
           Upper Temperature = 6000 [K]
         END
         UPPER INTERVAL COEFFICIENTS:
           NASA a1 = 3.08792717E+00 []
           NASA a2 = 1.24597184E-03 [K^-1]
           NASA a3 = -4.23718945E-07 [K^-2]
           NASA a4 = 6.74774789E-11 [K^-3]
           NASA a5 = -3.97076972E-15 [K^-4]
           NASA a6 = -9.95262755E+02 [K]
           NASA a7 = 5.95960930E+00 []
         END
       END
       REFERENCE STATE:
         Option = NASA Format
         Reference Pressure = 1 [atm]
         Reference Temperature = 25 [C]
       END
       DYNAMIC VISCOSITY:
         Dynamic Viscosity = 1.79e-05 [kg m^-1 s^-1]
         Option = Value
       END
       THERMAL CONDUCTIVITY:
         Option = Value
         Thermal Conductivity = 0.0252 [W m^-1 K^-1]
       END
       ABSORPTION COEFFICIENT:
         Absorption Coefficient = 1.0 [m^-1]
         Option = Value
       END
       SCATTERING COEFFICIENT:
         Option = Value
         Scattering Coefficient = 0.0 [m^-1]
       END
       REFRACTIVE INDEX:
         Option = Value
         Refractive Index = 1.0 [m m^-1]
       END
     END
   END
 END
 FLOW: Flow Analysis 1
   SOLUTION UNITS:
     Angle Units = [rad]
     Length Units = [m]
     Mass Units = [kg]
     Solid Angle Units = [sr]
     Temperature Units = [K]
     Time Units = [s]
   END
   ANALYSIS TYPE:
     Option = Steady State
     EXTERNAL SOLVER COUPLING:
       Option = None
     END
   END
   DOMAIN: Cavity
     Coord Frame = Coord 0
     Domain Type = Fluid
     Location = em_402_imp_cavity_pos2
     BOUNDARY: Cav_Per Side 1
       Boundary Type = INTERFACE
       Location = cav_per1
       BOUNDARY CONDITIONS:
         HEAT TRANSFER:
           Option = Conservative Interface Flux
         END
         MASS AND MOMENTUM:
           Option = Conservative Interface Flux
         END
         TURBULENCE:
           Option = Conservative Interface Flux
         END
       END
     END
     BOUNDARY: Cav_Per Side 2
       Boundary Type = INTERFACE
       Location = cav_per2
       BOUNDARY CONDITIONS:
         HEAT TRANSFER:
           Option = Conservative Interface Flux
         END
         MASS AND MOMENTUM:
           Option = Conservative Interface Flux
         END
         TURBULENCE:
           Option = Conservative Interface Flux
         END
       END
     END
     BOUNDARY: Cavity Default
       Boundary Type = WALL
       Location = Primitive 2D,Primitive 2D A,Primitive 2D B,Primitive 2D \
         C,Primitive 2D D,Primitive 2D E,Primitive 2D F,Primitive 2D \
         G,Primitive 2D H,Primitive 2D I,Primitive 2D J,Primitive 2D \
         K,Primitive 2D L,Primitive 2D M,Primitive 2D N,Primitive 2D \
         O,Primitive 2D P,Primitive 2D Q
       BOUNDARY CONDITIONS:
         HEAT TRANSFER:
           Option = Adiabatic
         END
         MASS AND MOMENTUM:
           Option = No Slip Wall
         END
         WALL ROUGHNESS:
           Option = Smooth Wall
         END
       END
     END
     BOUNDARY: Imp_Cav Side 2
       Boundary Type = INTERFACE
       Location = cav_inlet
       BOUNDARY CONDITIONS:
         HEAT TRANSFER:
           Option = Conservative Interface Flux
         END
         MASS AND MOMENTUM:
           Option = Conservative Interface Flux
         END
         TURBULENCE:
           Option = Conservative Interface Flux
         END
       END
     END
     BOUNDARY: Outlet
       Boundary Type = OPENING
       Location = cav_outlet
       BOUNDARY CONDITIONS:
         FLOW DIRECTION:
           Option = Normal to Boundary Condition
         END
         FLOW REGIME:
           Option = Subsonic
         END
         HEAT TRANSFER:
           Opening Temperature = 288 [K]
           Option = Opening Temperature
         END
         MASS AND MOMENTUM:
           Option = Opening Pressure and Direction
           Relative Pressure = 101325 [Pa]
         END
         TURBULENCE:
           Option = Medium Intensity and Eddy Viscosity Ratio
         END
       END
     END
     DOMAIN MODELS:
       BUOYANCY MODEL:
         Option = Non Buoyant
       END
       DOMAIN MOTION:
         Option = Stationary
       END
       MESH DEFORMATION:
         Option = None
       END
       REFERENCE PRESSURE:
         Reference Pressure = 0 [psi]
       END
     END
     FLUID DEFINITION: Air Ideal Gas Real
       Material = Air Ideal Gas Real
       Option = Material Library
       MORPHOLOGY:
         Option = Continuous Fluid
       END
     END
     FLUID MODELS:
       COMBUSTION MODEL:
         Option = None
       END
       HEAT TRANSFER MODEL:
         Include Viscous Work Term = On
         Option = Total Energy
       END
       THERMAL RADIATION MODEL:
         Option = None
       END
       TURBULENCE MODEL:
         Option = SST
         REATTACHMENT MODIFICATION:
           Option = Reattachment Production
         END
       END
       TURBULENT WALL FUNCTIONS:
         High Speed Model = On
         Option = Automatic
       END
     END
     INITIALISATION:
       Option = Automatic
       INITIAL CONDITIONS:
         Velocity Type = Cylindrical
         CYLINDRICAL VELOCITY COMPONENTS:
           Option = Automatic with Value
           Velocity Axial Component = 1 [m s^-1]
           Velocity Theta Component = 1 [m s^-1]
           Velocity r Component = 1 [m s^-1]
           AXIS DEFINITION:
             Option = Coordinate Axis
             Rotation Axis = Coord 0.3
           END
         END
         STATIC PRESSURE:
           Option = Automatic with Value
           Relative Pressure = 99800 [Pa]
         END
         TEMPERATURE:
           Option = Automatic with Value
           Temperature = 288 [K]
         END
         TURBULENCE INITIAL CONDITIONS:
           Option = Medium Intensity and Eddy Viscosity Ratio
         END
       END
     END
   END
   DOMAIN: Diffuser
     Coord Frame = Coord 0
     Domain Type = Fluid
     Location = Assembly
     BOUNDARY: Blade_GV1
       Boundary Type = WALL
       Location = BLADE
       BOUNDARY CONDITIONS:
         HEAT TRANSFER:
           Option = Adiabatic
         END
         MASS AND MOMENTUM:
           Option = No Slip Wall
         END
         WALL ROUGHNESS:
           Option = Smooth Wall
         END
       END
     END
     BOUNDARY: Diff_ Periodic Side 1
       Boundary Type = INTERFACE
       Location = PER1 4
       BOUNDARY CONDITIONS:
         HEAT TRANSFER:
           Option = Conservative Interface Flux
         END
         MASS AND MOMENTUM:
           Option = Conservative Interface Flux
         END
         TURBULENCE:
           Option = Conservative Interface Flux
         END
       END
     END
     BOUNDARY: Diff_ Periodic Side 2
       Boundary Type = INTERFACE
       Location = PER2 4
       BOUNDARY CONDITIONS:
         HEAT TRANSFER:
           Option = Conservative Interface Flux
         END
         MASS AND MOMENTUM:
           Option = Conservative Interface Flux
         END
         TURBULENCE:
           Option = Conservative Interface Flux
         END
       END
     END
     BOUNDARY: FR1 Side 1
       Boundary Type = INTERFACE
       Location = OUTFLOW 3
       BOUNDARY CONDITIONS:
         HEAT TRANSFER:
           Option = Conservative Interface Flux
         END
         MASS AND MOMENTUM:
           Option = Conservative Interface Flux
         END
         TURBULENCE:
           Option = Conservative Interface Flux
         END
       END
     END
     BOUNDARY: HUB GGI Side 1
       Boundary Type = INTERFACE
       Location = HUB TIP GGI SIDE 1 Passage
       BOUNDARY CONDITIONS:
         HEAT TRANSFER:
           Option = Conservative Interface Flux
         END
         MASS AND MOMENTUM:
           Option = Conservative Interface Flux
         END
         TURBULENCE:
           Option = Conservative Interface Flux
         END
       END
     END
     BOUNDARY: HUB GGI Side 2
       Boundary Type = INTERFACE
       Location = HUB TIP GGI SIDE 2 Passage
       BOUNDARY CONDITIONS:
         HEAT TRANSFER:
           Option = Conservative Interface Flux
         END
         MASS AND MOMENTUM:
           Option = Conservative Interface Flux
         END
         TURBULENCE:
           Option = Conservative Interface Flux
         END
       END
     END
     BOUNDARY: Hub_Diff
       Boundary Type = WALL
       Location = HUB 3
       BOUNDARY CONDITIONS:
         HEAT TRANSFER:
           Option = Adiabatic
         END
         MASS AND MOMENTUM:
           Option = No Slip Wall
           WALL VELOCITY:
             Angular Velocity = Mechanical Speed*Ramp Omega(aitern)
             Option = Rotating Wall
             AXIS DEFINITION:
               Option = Coordinate Axis
               Rotation Axis = Coord 0.3
             END
           END
         END
         WALL ROUGHNESS:
           Option = Smooth Wall
         END
       END
     END
     BOUNDARY: Mix1 Side 1 1
       Boundary Type = INTERFACE
       Location = INFLOW 3
       BOUNDARY CONDITIONS:
         HEAT TRANSFER:
           Option = Conservative Interface Flux
         END
         MASS AND MOMENTUM:
           Option = Conservative Interface Flux
         END
         TURBULENCE:
           Option = Conservative Interface Flux
         END
       END
     END
     BOUNDARY: Shr_Diff
       Boundary Type = WALL
       Location = SHROUD 3
       BOUNDARY CONDITIONS:
         HEAT TRANSFER:
           Option = Adiabatic
         END
         MASS AND MOMENTUM:
           Option = No Slip Wall
         END
         WALL ROUGHNESS:
           Option = Smooth Wall
         END
       END
     END
     DOMAIN MODELS:
       BUOYANCY MODEL:
         Option = Non Buoyant
       END
       DOMAIN MOTION:
         Option = Stationary
       END
       MESH DEFORMATION:
         Option = None
       END
       REFERENCE PRESSURE:
         Reference Pressure = 0 [psi]
       END
     END
     FLUID DEFINITION: Air Ideal Gas Real
       Material = Air Ideal Gas Real
       Option = Material Library
       MORPHOLOGY:
         Option = Continuous Fluid
       END
     END
     FLUID MODELS:
       COMBUSTION MODEL:
         Option = None
       END
       HEAT TRANSFER MODEL:
         Include Viscous Work Term = On
         Option = Total Energy
       END
       THERMAL RADIATION MODEL:
         Option = None
       END
       TURBULENCE MODEL:
         Option = SST
         REATTACHMENT MODIFICATION:
           Option = Reattachment Production
         END
       END
       TURBULENT WALL FUNCTIONS:
         High Speed Model = On
         Option = Automatic
       END
     END
     INITIALISATION:
       Option = Automatic
       INITIAL CONDITIONS:
         Velocity Type = Cylindrical
         CYLINDRICAL VELOCITY COMPONENTS:
           Option = Automatic with Value
           Velocity Axial Component = 100 [m s^-1]
           Velocity Theta Component = 1 [m s^-1]
           Velocity r Component = 1 [m s^-1]
           AXIS DEFINITION:
             Option = Coordinate Axis
             Rotation Axis = Coord 0.3
           END
         END
         STATIC PRESSURE:
           Option = Automatic with Value
           Relative Pressure = 99800 [Pa]
         END
         TEMPERATURE:
           Option = Automatic with Value
           Temperature = 288 [K]
         END
         TURBULENCE INITIAL CONDITIONS:
           Option = Medium Intensity and Eddy Viscosity Ratio
         END
       END
     END
   END
   DOMAIN: Diffuser2
     Coord Frame = Coord 0
     Domain Type = Fluid
     Location = Assembly 2
     BOUNDARY: Blade_GV2
       Boundary Type = WALL
       Location = BLADE 2
       BOUNDARY CONDITIONS:
         HEAT TRANSFER:
           Option = Adiabatic
         END
         MASS AND MOMENTUM:
           Option = No Slip Wall
         END
         WALL ROUGHNESS:
           Option = Smooth Wall
         END
       END
     END
     BOUNDARY: Diff2_Periodic Side 1
       Boundary Type = INTERFACE
       Location = INBlock PER1 2,OUTBlock PER1,Passage PER1 2
       BOUNDARY CONDITIONS:
         HEAT TRANSFER:
           Option = Conservative Interface Flux
         END
         MASS AND MOMENTUM:
           Option = Conservative Interface Flux
         END
         TURBULENCE:
           Option = Conservative Interface Flux
         END
       END
     END
     BOUNDARY: Diff2_Periodic Side 2
       Boundary Type = INTERFACE
       Location = INBlock PER2 2,OUTBlock PER2,Passage PER2 2
       BOUNDARY CONDITIONS:
         HEAT TRANSFER:
           Option = Conservative Interface Flux
         END
         MASS AND MOMENTUM:
           Option = Conservative Interface Flux
         END
         TURBULENCE:
           Option = Conservative Interface Flux
         END
       END
     END
     BOUNDARY: FR1 Side 2
       Boundary Type = INTERFACE
       Location = INBlock INFLOW 2
       BOUNDARY CONDITIONS:
         HEAT TRANSFER:
           Option = Conservative Interface Flux
         END
         MASS AND MOMENTUM:
           Option = Conservative Interface Flux
         END
         TURBULENCE:
           Option = Conservative Interface Flux
         END
       END
     END
     BOUNDARY: Hub_Diff2
       Boundary Type = WALL
       Location = INBlock HUB 2,OUTBlock HUB,Passage HUB 2
       BOUNDARY CONDITIONS:
         HEAT TRANSFER:
           Option = Adiabatic
         END
         MASS AND MOMENTUM:
           Option = No Slip Wall
         END
         WALL ROUGHNESS:
           Option = Smooth Wall
         END
       END
     END
     BOUNDARY: Mix2 Side 1
       Boundary Type = INTERFACE
       Location = OUTBlock OUTFLOW
       BOUNDARY CONDITIONS:
         HEAT TRANSFER:
           Option = Conservative Interface Flux
         END
         MASS AND MOMENTUM:
           Option = Conservative Interface Flux
         END
         TURBULENCE:
           Option = Conservative Interface Flux
         END
       END
     END
     BOUNDARY: Shr_Diff2
       Boundary Type = WALL
       Location = SHROUD Passage 2,INBlock SHROUD 2,OUTBlock SHROUD
       BOUNDARY CONDITIONS:
         HEAT TRANSFER:
           Option = Adiabatic
         END
         MASS AND MOMENTUM:
           Option = No Slip Wall
         END
         WALL ROUGHNESS:
           Option = Smooth Wall
         END
       END
     END
     DOMAIN MODELS:
       BUOYANCY MODEL:
         Option = Non Buoyant
       END
       DOMAIN MOTION:
         Option = Stationary
       END
       MESH DEFORMATION:
         Option = None
       END
       REFERENCE PRESSURE:
         Reference Pressure = 0 [psi]
       END
     END
     FLUID DEFINITION: Air Ideal Gas Real
       Material = Air Ideal Gas Real
       Option = Material Library
       MORPHOLOGY:
         Option = Continuous Fluid
       END
     END
     FLUID MODELS:
       COMBUSTION MODEL:
         Option = None
       END
       HEAT TRANSFER MODEL:
         Include Viscous Work Term = On
         Option = Total Energy
       END
       THERMAL RADIATION MODEL:
         Option = None
       END
       TURBULENCE MODEL:
         Option = SST
         REATTACHMENT MODIFICATION:
           Option = Reattachment Production
         END
       END
       TURBULENT WALL FUNCTIONS:
         High Speed Model = On
         Option = Automatic
       END
     END
     INITIALISATION:
       Option = Automatic
       INITIAL CONDITIONS:
         Velocity Type = Cylindrical
         CYLINDRICAL VELOCITY COMPONENTS:
           Option = Automatic with Value
           Velocity Axial Component = 100 [m s^-1]
           Velocity Theta Component = 1 [m s^-1]
           Velocity r Component = 1 [m s^-1]
           AXIS DEFINITION:
             Option = Coordinate Axis
             Rotation Axis = Coord 0.3
           END
         END
         STATIC PRESSURE:
           Option = Automatic with Value
           Relative Pressure = 99800 [Pa]
         END
         TEMPERATURE:
           Option = Automatic with Value
           Temperature = 288 [K]
         END
         TURBULENCE INITIAL CONDITIONS:
           Option = Medium Intensity and Eddy Viscosity Ratio
         END
       END
     END
   END
   DOMAIN: Impeller
     Coord Frame = Coord 0
     Domain Type = Fluid
     Location = Assembly 5
     BOUNDARY: Blade
       Boundary Type = WALL
       Frame Type = Rotating
       Location = \
         imp_blade_le,imp_blade_ps,imp_blade_ss,imp_blade_te,imp_blade_tip
       BOUNDARY CONDITIONS:
         HEAT TRANSFER:
           Option = Adiabatic
         END
         MASS AND MOMENTUM:
           Option = No Slip Wall
         END
         WALL ROUGHNESS:
           Option = Smooth Wall
         END
       END
     END
     BOUNDARY: IMP_HUB
       Boundary Type = WALL
       Frame Type = Rotating
       Location = imp_hub
       BOUNDARY CONDITIONS:
         HEAT TRANSFER:
           Option = Adiabatic
         END
         MASS AND MOMENTUM:
           Option = No Slip Wall
         END
         WALL ROUGHNESS:
           Option = Smooth Wall
         END
       END
     END
     BOUNDARY: IMP_Hub1
       Boundary Type = WALL
       Frame Type = Rotating
       Location = imp_free_slip_wall
       BOUNDARY CONDITIONS:
         HEAT TRANSFER:
           Option = Adiabatic
         END
         MASS AND MOMENTUM:
           Option = Free Slip Wall
         END
       END
     END
     BOUNDARY: IMP_SHROUD
       Boundary Type = WALL
       Frame Type = Rotating
       Location = imp_shroud_1,imp_shroud_2
       BOUNDARY CONDITIONS:
         HEAT TRANSFER:
           Option = Adiabatic
         END
         MASS AND MOMENTUM:
           Option = No Slip Wall
           WALL VELOCITY:
             Option = Counter Rotating Wall
           END
         END
         WALL ROUGHNESS:
           Option = Smooth Wall
         END
       END
     END
     BOUNDARY: Imp_Cav Side 1
       Boundary Type = INTERFACE
       Location = imp_shroud_3
       BOUNDARY CONDITIONS:
         HEAT TRANSFER:
           Option = Conservative Interface Flux
         END
         MASS AND MOMENTUM:
           Option = Conservative Interface Flux
         END
         TURBULENCE:
           Option = Conservative Interface Flux
         END
       END
     END
     BOUNDARY: Imp_Per Side 1
       Boundary Type = INTERFACE
       Location = imp_per1
       BOUNDARY CONDITIONS:
         HEAT TRANSFER:
           Option = Conservative Interface Flux
         END
         MASS AND MOMENTUM:
           Option = Conservative Interface Flux
         END
         TURBULENCE:
           Option = Conservative Interface Flux
         END
       END
     END
     BOUNDARY: Imp_Per Side 2
       Boundary Type = INTERFACE
       Location = imp_per2
       BOUNDARY CONDITIONS:
         HEAT TRANSFER:
           Option = Conservative Interface Flux
         END
         MASS AND MOMENTUM:
           Option = Conservative Interface Flux
         END
         TURBULENCE:
           Option = Conservative Interface Flux
         END
       END
     END
     BOUNDARY: Inlet
       Boundary Type = INLET
       Frame Type = Stationary
       Location = imp_in
       BOUNDARY CONDITIONS:
         FLOW DIRECTION:
           Option = Normal to Boundary Condition
         END
         FLOW REGIME:
           Option = Subsonic
         END
         HEAT TRANSFER:
           Option = Stationary Frame Total Temperature
           Stationary Frame Total Temperature = 288.15 [K]
         END
         MASS AND MOMENTUM:
           Option = Stationary Frame Total Pressure
           Relative Pressure = 101325 [Pa]
         END
         TURBULENCE:
           Option = Medium Intensity and Eddy Viscosity Ratio
         END
       END
     END
     BOUNDARY: Mix1 Side 1
       Boundary Type = INTERFACE
       Location = imp_out
       BOUNDARY CONDITIONS:
         HEAT TRANSFER:
           Option = Conservative Interface Flux
         END
         MASS AND MOMENTUM:
           Option = Conservative Interface Flux
         END
         TURBULENCE:
           Option = Conservative Interface Flux
         END
       END
     END
     DOMAIN MODELS:
       BUOYANCY MODEL:
         Option = Non Buoyant
       END
       DOMAIN MOTION:
         Alternate Rotation Model = On
         Angular Velocity = Mechanical Speed*Ramp Omega(aitern)
         Option = Rotating
         AXIS DEFINITION:
           Option = Coordinate Axis
           Rotation Axis = Coord 0.3
         END
       END
       MESH DEFORMATION:
         Option = None
       END
       REFERENCE PRESSURE:
         Reference Pressure = 0 [psi]
       END
     END
     FLUID DEFINITION: Air Ideal Gas Real
       Material = Air Ideal Gas Real
       Option = Material Library
       MORPHOLOGY:
         Option = Continuous Fluid
       END
     END
     FLUID MODELS:
       COMBUSTION MODEL:
         Option = None
       END
       HEAT TRANSFER MODEL:
         Include Viscous Work Term = On
         Option = Total Energy
       END
       THERMAL RADIATION MODEL:
         Option = None
       END
       TURBULENCE MODEL:
         Option = SST
         REATTACHMENT MODIFICATION:
           Option = Reattachment Production
         END
       END
       TURBULENT WALL FUNCTIONS:
         High Speed Model = On
         Option = Automatic
       END
     END
     INITIALISATION:
       Frame Type = Stationary
       Option = Automatic
       INITIAL CONDITIONS:
         Velocity Type = Cylindrical
         CYLINDRICAL VELOCITY COMPONENTS:
           Option = Automatic with Value
           Velocity Axial Component = 100 [m s^-1]
           Velocity Theta Component = 1 [m s^-1]
           Velocity r Component = 1 [m s^-1]
         END
         STATIC PRESSURE:
           Option = Automatic with Value
           Relative Pressure = 99800 [Pa]
         END
         TEMPERATURE:
           Option = Automatic with Value
           Temperature = 288 [K]
         END
         TURBULENCE INITIAL CONDITIONS:
           Option = Medium Intensity and Eddy Viscosity Ratio
         END
       END
     END
   END
   DOMAIN: Impeller2
     Coord Frame = Coord 0
     Domain Type = Fluid
     Location = Assembly 6
     BOUNDARY: Blade_Imp2
       Boundary Type = WALL
       Frame Type = Rotating
       Location = Main blade 2,Splitter blade 2
       BOUNDARY CONDITIONS:
         HEAT TRANSFER:
           Option = Adiabatic
         END
         MASS AND MOMENTUM:
           Option = No Slip Wall
         END
         WALL ROUGHNESS:
           Option = Smooth Wall
         END
       END
     END
     BOUNDARY: IMP2_Hub
       Boundary Type = WALL
       Frame Type = Rotating
       Location = Passage HUB 4
       BOUNDARY CONDITIONS:
         HEAT TRANSFER:
           Option = Adiabatic
         END
         MASS AND MOMENTUM:
           Option = No Slip Wall
         END
         WALL ROUGHNESS:
           Option = Smooth Wall
         END
       END
     END
     BOUNDARY: IMP2_Hub_Stn
       Boundary Type = WALL
       Frame Type = Rotating
       Location = INBlock HUB 4
       BOUNDARY CONDITIONS:
         HEAT TRANSFER:
           Option = Adiabatic
         END
         MASS AND MOMENTUM:
           Option = No Slip Wall
           WALL VELOCITY:
             Option = Counter Rotating Wall
           END
         END
         WALL ROUGHNESS:
           Option = Smooth Wall
         END
       END
     END
     BOUNDARY: IMP2_Periodic Side 1
       Boundary Type = INTERFACE
       Location = INBlock PER1 4,Passage PER1 4
       BOUNDARY CONDITIONS:
         HEAT TRANSFER:
           Option = Conservative Interface Flux
         END
         MASS AND MOMENTUM:
           Option = Conservative Interface Flux
         END
         TURBULENCE:
           Option = Conservative Interface Flux
         END
       END
     END
     BOUNDARY: IMP2_Periodic Side 2
       Boundary Type = INTERFACE
       Location = INBlock PER2 4,Passage PER2 4
       BOUNDARY CONDITIONS:
         HEAT TRANSFER:
           Option = Conservative Interface Flux
         END
         MASS AND MOMENTUM:
           Option = Conservative Interface Flux
         END
         TURBULENCE:
           Option = Conservative Interface Flux
         END
       END
     END
     BOUNDARY: IMP2_Shr
       Boundary Type = WALL
       Frame Type = Rotating
       Location = INBlock SHROUD 4,Passage SHROUD 4
       BOUNDARY CONDITIONS:
         HEAT TRANSFER:
           Option = Adiabatic
         END
         MASS AND MOMENTUM:
           Option = No Slip Wall
           WALL VELOCITY:
             Option = Counter Rotating Wall
           END
         END
         WALL ROUGHNESS:
           Option = Smooth Wall
         END
       END
     END
     BOUNDARY: Mix2 Side 2
       Boundary Type = INTERFACE
       Location = INBlock INFLOW 4
       BOUNDARY CONDITIONS:
         HEAT TRANSFER:
           Option = Conservative Interface Flux
         END
         MASS AND MOMENTUM:
           Option = Conservative Interface Flux
         END
         TURBULENCE:
           Option = Conservative Interface Flux
         END
       END
     END
     BOUNDARY: Mix3 Side 1
       Boundary Type = INTERFACE
       Location = Passage OUTFLOW 4
       BOUNDARY CONDITIONS:
         HEAT TRANSFER:
           Option = Conservative Interface Flux
         END
         MASS AND MOMENTUM:
           Option = Conservative Interface Flux
         END
         TURBULENCE:
           Option = Conservative Interface Flux
         END
       END
     END
     BOUNDARY: TIP_IMP2 Side 1
       Boundary Type = INTERFACE
       Location = Main blade SHROUD TIP GGI SIDE 1 2
       BOUNDARY CONDITIONS:
         HEAT TRANSFER:
           Option = Conservative Interface Flux
         END
         MASS AND MOMENTUM:
           Option = Conservative Interface Flux
         END
         TURBULENCE:
           Option = Conservative Interface Flux
         END
       END
     END
     BOUNDARY: TIP_IMP2 Side 2
       Boundary Type = INTERFACE
       Location = Main blade SHROUD TIP GGI SIDE 2 2
       BOUNDARY CONDITIONS:
         HEAT TRANSFER:
           Option = Conservative Interface Flux
         END
         MASS AND MOMENTUM:
           Option = Conservative Interface Flux
         END
         TURBULENCE:
           Option = Conservative Interface Flux
         END
       END
     END
     BOUNDARY: TIP_IMP2_Splitt Side 1
       Boundary Type = INTERFACE
       Location = Splitter blade SHROUD TIP GGI SIDE 1 2
       BOUNDARY CONDITIONS:
         HEAT TRANSFER:
           Option = Conservative Interface Flux
         END
         MASS AND MOMENTUM:
           Option = Conservative Interface Flux
         END
         TURBULENCE:
           Option = Conservative Interface Flux
         END
       END
     END
     BOUNDARY: TIP_IMP2_Splitt Side 2
       Boundary Type = INTERFACE
       Location = Splitter blade SHROUD TIP GGI SIDE 2 2
       BOUNDARY CONDITIONS:
         HEAT TRANSFER:
           Option = Conservative Interface Flux
         END
         MASS AND MOMENTUM:
           Option = Conservative Interface Flux
         END
         TURBULENCE:
           Option = Conservative Interface Flux
         END
       END
     END
     DOMAIN MODELS:
       BUOYANCY MODEL:
         Option = Non Buoyant
       END
       DOMAIN MOTION:
         Alternate Rotation Model = On
         Angular Velocity = Mechanical Speed*Ramp Omega(aitern)
         Option = Rotating
         AXIS DEFINITION:
           Option = Coordinate Axis
           Rotation Axis = Coord 0.3
         END
       END
       MESH DEFORMATION:
         Option = None
       END
       REFERENCE PRESSURE:
         Reference Pressure = 0 [psi]
       END
     END
     FLUID DEFINITION: Air Ideal Gas Real
       Material = Air Ideal Gas Real
       Option = Material Library
       MORPHOLOGY:
         Option = Continuous Fluid
       END
     END
     FLUID MODELS:
       COMBUSTION MODEL:
         Option = None
       END
       HEAT TRANSFER MODEL:
         Include Viscous Work Term = On
         Option = Total Energy
       END
       THERMAL RADIATION MODEL:
         Option = None
       END
       TURBULENCE MODEL:
         Option = SST
         REATTACHMENT MODIFICATION:
           Option = Reattachment Production
         END
       END
       TURBULENT WALL FUNCTIONS:
         High Speed Model = On
         Option = Automatic
       END
     END
     INITIALISATION:
       Frame Type = Stationary
       Option = Automatic
       INITIAL CONDITIONS:
         Velocity Type = Cylindrical
         CYLINDRICAL VELOCITY COMPONENTS:
           Option = Automatic with Value
           Velocity Axial Component = 100 [m s^-1]
           Velocity Theta Component = 1 [m s^-1]
           Velocity r Component = 1 [m s^-1]
         END
         STATIC PRESSURE:
           Option = Automatic with Value
           Relative Pressure = 99800 [Pa]
         END
         TEMPERATURE:
           Option = Automatic with Value
           Temperature = 288 [K]
         END
         TURBULENCE INITIAL CONDITIONS:
           Option = Medium Intensity and Eddy Viscosity Ratio
         END
       END
     END
   END
   DOMAIN: Pipe Diff
     Coord Frame = Coord 0
     Domain Type = Fluid
     Location = Assembly 3
     BOUNDARY: Exit
       Boundary Type = OUTLET
       Location = OUTLET
       BOUNDARY CONDITIONS:
         FLOW REGIME:
           Option = Subsonic
         END
         MASS AND MOMENTUM:
           Mass Flow Rate = 0.118 [kg s^-1]
           Mass Flow Rate Area = As Specified
           Option = Mass Flow Rate
           MASS FLOW UPDATE:
             Option = Shift Pressure
             Pressure Profile Blend = 0.05
             Pressure Profile Shape = 1 [psi]
           END
         END
         PRESSURE AVERAGING:
           Option = None
         END
       END
     END
     BOUNDARY: Mix3 Side 2
       Boundary Type = INTERFACE
       Location = INLET
       BOUNDARY CONDITIONS:
         HEAT TRANSFER:
           Option = Conservative Interface Flux
         END
         MASS AND MOMENTUM:
           Option = Conservative Interface Flux
         END
         TURBULENCE:
           Option = Conservative Interface Flux
         END
       END
     END
     BOUNDARY: Pipe Diff Default
       Boundary Type = WALL
       Location = CHAMF1,CHAMF2,LE,PIPE_WALL,VANE_LESSA,VANE_LESSB
       BOUNDARY CONDITIONS:
         HEAT TRANSFER:
           Option = Adiabatic
         END
         MASS AND MOMENTUM:
           Option = No Slip Wall
         END
         WALL ROUGHNESS:
           Option = Smooth Wall
         END
       END
     END
     BOUNDARY: Pipe Diff Periodic Side 1
       Boundary Type = INTERFACE
       Location = PER1
       BOUNDARY CONDITIONS:
         HEAT TRANSFER:
           Option = Conservative Interface Flux
         END
         MASS AND MOMENTUM:
           Option = Conservative Interface Flux
         END
         TURBULENCE:
           Option = Conservative Interface Flux
         END
       END
     END
     BOUNDARY: Pipe Diff Periodic Side 2
       Boundary Type = INTERFACE
       Location = PER2
       BOUNDARY CONDITIONS:
         HEAT TRANSFER:
           Option = Conservative Interface Flux
         END
         MASS AND MOMENTUM:
           Option = Conservative Interface Flux
         END
         TURBULENCE:
           Option = Conservative Interface Flux
         END
       END
     END
     DOMAIN MODELS:
       BUOYANCY MODEL:
         Option = Non Buoyant
       END
       DOMAIN MOTION:
         Option = Stationary
       END
       MESH DEFORMATION:
         Option = None
       END
       REFERENCE PRESSURE:
         Reference Pressure = 0 [psi]
       END
     END
     FLUID DEFINITION: Air Ideal Gas Real
       Material = Air Ideal Gas Real
       Option = Material Library
       MORPHOLOGY:
         Option = Continuous Fluid
       END
     END
     FLUID MODELS:
       COMBUSTION MODEL:
         Option = None
       END
       HEAT TRANSFER MODEL:
         Include Viscous Work Term = On
         Option = Total Energy
       END
       THERMAL RADIATION MODEL:
         Option = None
       END
       TURBULENCE MODEL:
         Option = SST
         REATTACHMENT MODIFICATION:
           Option = Reattachment Production
         END
       END
       TURBULENT WALL FUNCTIONS:
         High Speed Model = On
         Option = Automatic
       END
     END
     INITIALISATION:
       Option = Automatic
       INITIAL CONDITIONS:
         Velocity Type = Cylindrical
         CYLINDRICAL VELOCITY COMPONENTS:
           Option = Automatic with Value
           Velocity Axial Component = 10 [m s^-1]
           Velocity Theta Component = 10 [m s^-1]
           Velocity r Component = 10 [m s^-1]
           AXIS DEFINITION:
             Option = Coordinate Axis
             Rotation Axis = Coord 0.3
           END
         END
         STATIC PRESSURE:
           Option = Automatic with Value
           Relative Pressure = 99800 [Pa]
         END
         TEMPERATURE:
           Option = Automatic with Value
           Temperature = 288 [K]
         END
         TURBULENCE INITIAL CONDITIONS:
           Option = Medium Intensity and Eddy Viscosity Ratio
         END
       END
     END
   END
   DOMAIN INTERFACE: Cav_Per
     Boundary List1 = Cav_Per Side 1
     Boundary List2 = Cav_Per Side 2
     Interface Type = Fluid Fluid
     INTERFACE MODELS:
       Option = Rotational Periodicity
       AXIS DEFINITION:
         Option = Coordinate Axis
         Rotation Axis = Coord 0.3
       END
     END
     MESH CONNECTION:
       Option = Automatic
     END
   END
   DOMAIN INTERFACE: Diff2_Periodic
     Boundary List1 = Diff2_Periodic Side 1
     Boundary List2 = Diff2_Periodic Side 2
     Interface Type = Fluid Fluid
     INTERFACE MODELS:
       Option = Rotational Periodicity
       AXIS DEFINITION:
         Option = Coordinate Axis
         Rotation Axis = Coord 0.3
       END
     END
     MESH CONNECTION:
       Option = GGI
     END
   END
   DOMAIN INTERFACE: Diff_ Periodic
     Boundary List1 = Diff_ Periodic Side 1
     Boundary List2 = Diff_ Periodic Side 2
     Interface Type = Fluid Fluid
     INTERFACE MODELS:
       Option = Rotational Periodicity
       AXIS DEFINITION:
         Option = Coordinate Axis
         Rotation Axis = Coord 0.3
       END
     END
     MESH CONNECTION:
       Option = GGI
     END
   END
   DOMAIN INTERFACE: FR1
     Boundary List1 = FR1 Side 1
     Boundary List2 = FR1 Side 2
     Interface Type = Fluid Fluid
     INTERFACE MODELS:
       Option = General Connection
       FRAME CHANGE:
         Option = Frozen Rotor
       END
       MASS AND MOMENTUM:
         Option = Conservative Interface Flux
         MOMENTUM INTERFACE MODEL:
           Option = None
         END
       END
       PITCH CHANGE:
         Option = Value
         Pitch Ratio = 1
         AXIS DEFINITION:
           Option = Coordinate Axis
           Rotation Axis = Coord 0.3
         END
       END
     END
     MESH CONNECTION:
       Option = GGI
     END
   END
   DOMAIN INTERFACE: HUB GGI
     Boundary List1 = HUB GGI Side 1
     Boundary List2 = HUB GGI Side 2
     Interface Type = Fluid Fluid
     INTERFACE MODELS:
       Option = General Connection
       FRAME CHANGE:
         Option = None
       END
       MASS AND MOMENTUM:
         Option = Conservative Interface Flux
         MOMENTUM INTERFACE MODEL:
           Option = None
         END
       END
       PITCH CHANGE:
         Option = None
       END
     END
     MESH CONNECTION:
       Option = GGI
     END
   END
   DOMAIN INTERFACE: IMP2_Periodic
     Boundary List1 = IMP2_Periodic Side 1
     Boundary List2 = IMP2_Periodic Side 2
     Interface Type = Fluid Fluid
     INTERFACE MODELS:
       Option = Rotational Periodicity
       AXIS DEFINITION:
         Option = Coordinate Axis
         Rotation Axis = Coord 0.3
       END
     END
     MESH CONNECTION:
       Option = GGI
     END
   END
   DOMAIN INTERFACE: Imp_Cav
     Boundary List1 = Imp_Cav Side 1
     Boundary List2 = Imp_Cav Side 2
     Interface Type = Fluid Fluid
     INTERFACE MODELS:
       Option = General Connection
       FRAME CHANGE:
         Option = Frozen Rotor
       END
       MASS AND MOMENTUM:
         Option = Conservative Interface Flux
         MOMENTUM INTERFACE MODEL:
           Option = None
         END
       END
       PITCH CHANGE:
         Option = Value
         Pitch Ratio = 1
       END
     END
     MESH CONNECTION:
       Option = GGI
     END
   END
   DOMAIN INTERFACE: Imp_Per
     Boundary List1 = Imp_Per Side 1
     Boundary List2 = Imp_Per Side 2
     Interface Type = Fluid Fluid
     INTERFACE MODELS:
       Option = Rotational Periodicity
       AXIS DEFINITION:
         Option = Coordinate Axis
         Rotation Axis = Coord 0.3
       END
     END
     MESH CONNECTION:
       Option = Automatic
     END
   END
   DOMAIN INTERFACE: Mix1
     Boundary List1 = Mix1 Side 1
     Boundary List2 = Mix1 Side 1 1
     Interface Type = Fluid Fluid
     INTERFACE MODELS:
       Option = General Connection
       FRAME CHANGE:
         Implicit Stage Averaging = On
         Option = Stage
         DOWNSTREAM VELOCITY CONSTRAINT:
           Option = Stage Average Velocity
         END
       END
       PITCH CHANGE:
         Option = Specified Pitch Angles
         Pitch Angle Side1 = 32.7272 [degree]
         Pitch Angle Side2 = 16.3636 [degree]
       END
     END
     MESH CONNECTION:
       Option = GGI
     END
   END
   DOMAIN INTERFACE: Mix2
     Boundary List1 = Mix2 Side 1
     Boundary List2 = Mix2 Side 2
     Interface Type = Fluid Fluid
     INTERFACE MODELS:
       Option = General Connection
       FRAME CHANGE:
         Implicit Stage Averaging = On
         Option = Stage
         DOWNSTREAM VELOCITY CONSTRAINT:
           Option = Stage Average Velocity
         END
       END
       PITCH CHANGE:
         Option = Specified Pitch Angles
         Pitch Angle Side1 = 16.3636 [degree]
         Pitch Angle Side2 = 32.727 [degree]
       END
     END
     MESH CONNECTION:
       Option = GGI
     END
   END
   DOMAIN INTERFACE: Mix3
     Boundary List1 = Mix3 Side 1
     Boundary List2 = Mix3 Side 2
     Interface Type = Fluid Fluid
     INTERFACE MODELS:
       Option = General Connection
       FRAME CHANGE:
         Implicit Stage Averaging = On
         Option = Stage
         DOWNSTREAM VELOCITY CONSTRAINT:
           Option = Stage Average Velocity
         END
       END
       PITCH CHANGE:
         Option = Specified Pitch Angles
         Pitch Angle Side1 = 32.7272 [degree]
         Pitch Angle Side2 = 18 [degree]
       END
     END
     MESH CONNECTION:
       Option = GGI
     END
   END
   DOMAIN INTERFACE: Pipe Diff Periodic
     Boundary List1 = Pipe Diff Periodic Side 1
     Boundary List2 = Pipe Diff Periodic Side 2
     Interface Type = Fluid Fluid
     INTERFACE MODELS:
       Option = Rotational Periodicity
       AXIS DEFINITION:
         Option = Coordinate Axis
         Rotation Axis = Coord 0.3
       END
     END
     MESH CONNECTION:
       Option = GGI
     END
   END
   DOMAIN INTERFACE: TIP_IMP2
     Boundary List1 = TIP_IMP2 Side 1
     Boundary List2 = TIP_IMP2 Side 2
     Interface Type = Fluid Fluid
     INTERFACE MODELS:
       Option = General Connection
       FRAME CHANGE:
         Option = None
       END
       MASS AND MOMENTUM:
         Option = Conservative Interface Flux
         MOMENTUM INTERFACE MODEL:
           Option = None
         END
       END
       PITCH CHANGE:
         Option = None
       END
     END
     MESH CONNECTION:
       Option = GGI
     END
   END
   DOMAIN INTERFACE: TIP_IMP2_Splitt
     Boundary List1 = TIP_IMP2_Splitt Side 1
     Boundary List2 = TIP_IMP2_Splitt Side 2
     Interface Type = Fluid Fluid
     INTERFACE MODELS:
       Option = General Connection
       FRAME CHANGE:
         Option = None
       END
       MASS AND MOMENTUM:
         Option = Conservative Interface Flux
         MOMENTUM INTERFACE MODEL:
           Option = None
         END
       END
       PITCH CHANGE:
         Option = None
       END
     END
     MESH CONNECTION:
       Option = GGI
     END
   END
   OUTPUT CONTROL:
     MONITOR OBJECTS:
       EFFICIENCY OUTPUT:
         Efficiency Calculation Method = Total to Total
         Efficiency Type = Compression
         Inflow Boundary = Inlet
         Option = Output To Solver Monitor
         Outflow Boundary = Exit
       END
       MONITOR BALANCES:
         Option = Full
       END
       MONITOR FORCES:
         Option = Full
       END
       MONITOR PARTICLES:
         Option = Full
       END
       MONITOR POINT: Max Mach
         Coord Frame = Coord 0
         Expression Value = Monitor Max Mach
         Option = Expression
       END
       MONITOR POINT: Pressure Ratio
         Coord Frame = Coord 0
         Expression Value = Monitor PR
         Option = Expression
       END
       MONITOR POINT: Tbld
         Coord Frame = Coord 0
         Expression Value = Tbleed
         Option = Expression
       END
       MONITOR POINT: Temperature Ratio
         Coord Frame = Coord 0
         Expression Value = Monitor TR
         Option = Expression
       END
       MONITOR POINT: Wbld
         Coord Frame = Coord 0
         Expression Value = Wbleed
         Option = Expression
       END
       MONITOR POINT: Wext
         Coord Frame = Coord 0
         Expression Value = Monitor Wext
         Option = Expression
       END
       MONITOR POINT: Winl
         Coord Frame = Coord 0
         Expression Value = Monitor Winlet
         Option = Expression
       END
       MONITOR RESIDUALS:
         Option = Full
       END
       MONITOR TOTALS:
         Option = Full
       END
     END
     RESULTS:
       File Compression Level = Default
       Option = Standard
     END
   END
   SOLVER CONTROL:
     Turbulence Numerics = First Order
     ADVECTION SCHEME:
       Blend Factor Relaxation Option = 2
       Option = High Resolution
     END
     CONVERGENCE CONTROL:
       Maximum Number of Iterations = 400
       Minimum Number of Iterations = 1
       Physical Timescale = Timestep
       Timescale Control = Physical Timescale
     END
     CONVERGENCE CRITERIA:
       Conservation Target = 0.0005
       Residual Target = 1e-06
       Residual Type = RMS
     END
     DYNAMIC MODEL CONTROL:
       Global Dynamic Model Control = Yes
     END
     INTERRUPT CONTROL:
       Option = Any Interrupt
       CONVERGENCE CONDITIONS:
         Option = Default Conditions
       END
     END
   END
   EXPERT PARAMETERS:
     always output post processing = t
     topology estimate factor zif = 1.1
   END
 END
 COMMAND FILE:
   Results Version = 20.2
   Version = 20.2
 END
 SIMULATION CONTROL:
   EXECUTION CONTROL:
     EXECUTABLE SELECTION:
       Double Precision = No
       Large Problem = No
     END
     INTERPOLATOR STEP CONTROL:
       Runtime Priority = Standard
       MEMORY CONTROL:
         Memory Allocation Factor = 1.2
       END
     END
     PARALLEL HOST LIBRARY:
       HOST DEFINITION: node02
         Host Architecture String = winnt-amd64
         Installation Root = \\NODE01\ANSYS INC\V202\CFX
       END
     END
     PARTITIONER STEP CONTROL:
       Multidomain Option = Independent Partitioning
       Runtime Priority = Standard
       EXECUTABLE SELECTION:
         Large Problem = Off
       END
       MEMORY CONTROL:
         Memory Allocation Factor = 1.2
       END
       PARTITION SMOOTHING:
         Maximum Partition Smoothing Sweeps = 100
         Option = Smooth
       END
       PARTITIONING TYPE:
         MeTiS Type = k-way
         Option = MeTiS
         Partition Size Rule = Automatic
         Partition Weight Factors = 0.00521, 0.00521, 0.00521, 0.00521, \
           0.00521, 0.00521, 0.00521, 0.00521, 0.00521, 0.00521, 0.00521, \
           0.00521, 0.00521, 0.00521, 0.00521, 0.00521, 0.00521, 0.00521, \
           0.00521, 0.00521, 0.00521, 0.00521, 0.00521, 0.00521, 0.00521, \
           0.00521, 0.00521, 0.00521, 0.00521, 0.00521, 0.00521, 0.00521, \
           0.00521, 0.00521, 0.00521, 0.00521, 0.00521, 0.00521, 0.00521, \
           0.00521, 0.00521, 0.00521, 0.00521, 0.00521, 0.00521, 0.00521, \
           0.00521, 0.00521, 0.00521, 0.00521, 0.00521, 0.00521, 0.00521, \
           0.00521, 0.00521, 0.00521, 0.00521, 0.00521, 0.00521, 0.00521, \
           0.00521, 0.00521, 0.00521, 0.00521, 0.00521, 0.00521, 0.00521, \
           0.00521, 0.00521, 0.00521, 0.00521, 0.00521, 0.00521, 0.00521, \
           0.00521, 0.00521, 0.00521, 0.00521, 0.00521, 0.00521, 0.00521, \
           0.00521, 0.00521, 0.00521, 0.00521, 0.00521, 0.00521, 0.00521, \
           0.00521, 0.00521, 0.00521, 0.00521, 0.00521, 0.00521, 0.00521, \
           0.00521, 0.00521, 0.00521, 0.00521, 0.00521, 0.00521, 0.00521, \
           0.00521, 0.00521, 0.00521, 0.00521, 0.00521, 0.00521, 0.00521, \
           0.00521, 0.00521, 0.00521, 0.00521, 0.00521, 0.00521, 0.00521, \
           0.00521, 0.00521, 0.00521, 0.00521, 0.00521, 0.00521, 0.00521, \
           0.00521, 0.00521, 0.00521, 0.00521, 0.00521, 0.00521, 0.00521, \
           0.00521, 0.00521, 0.00521, 0.00521, 0.00521, 0.00521, 0.00521, \
           0.00521, 0.00521, 0.00521, 0.00521, 0.00521, 0.00521, 0.00521, \
           0.00521, 0.00521, 0.00521, 0.00521, 0.00521, 0.00521, 0.00521, \
           0.00521, 0.00521, 0.00521, 0.00521, 0.00521, 0.00521, 0.00521, \
           0.00521, 0.00521, 0.00521, 0.00521, 0.00521, 0.00521, 0.00521, \
           0.00521, 0.00521, 0.00521, 0.00521, 0.00521, 0.00521, 0.00521, \
           0.00521, 0.00521, 0.00521, 0.00521, 0.00521, 0.00521, 0.00521, \
           0.00521, 0.00521, 0.00521, 0.00521, 0.00521, 0.00521, 0.00521, \
           0.00521, 0.00521, 0.00521, 0.00521, 0.00521, 0.00521
       END
     END
     RUN DEFINITION:
       Run Mode = Full
       Solver Input File = \\NODE01\ANSYS \
         WORK\KISLOV\OPEN2_AM_IF_WITH_PIPE\BL7_AM_HUB_TIPCL_GV1_V1_GV2_V1_IMPE\
         LLER_FINAL_PIPE_100PRCT_W1.DEF
       Solver Results File = \\NODE01\ANSYS \
         WORK\KISLOV\OPEN2_AM_IF_WITH_PIPE\BL7_AM_Hub_Tipcl_GV1_v1_GV2_v1_Impe\
         ller_Final_Pipe_100prct_w1_001.res
       INITIAL VALUES SPECIFICATION:
         INITIAL VALUES CONTROL:
           Continue History From = Initial Values 1
           Use Mesh From = Solver Input File
         END
         INITIAL VALUES: Initial Values 1
           File Name = \
             BL7_AM_Hub_Tipcl_GV1_v1_GV2_v1_Impeller_Final_Pipe_100prct_ps4_00\
             1.res
           Option = Results File
         END
       END
     END
     SOLVER STEP CONTROL:
       Runtime Priority = Standard
       MEMORY CONTROL:
         Memory Allocation Factor = 1.2
       END
       PARALLEL ENVIRONMENT:
         Number of Processes = 192
         Start Method = Submit to Windows HPC Queue
       END
     END
   END
 END
 
 
 +--------------------------------------------------------------------+
 |                                                                    |
 |                  Interpolation of Initial Values                   |
 |                                                                    |
 +--------------------------------------------------------------------+
 
 


 +--------------------------------------------------------------------+
 |                                                                    |
 |                    ANSYS(R) CFX(R) Interpolator                    |
 |                                                                    |
 | 2020 R2                                                            |
 | Build 20.2 2020-05-29T15:06:09.465000                              |
 | Fri May 29 17:17:43 GMTDT 2020                                     |
 |                                                                    |
 |                        Executable Attributes                       |
 |                                                                    |
 |           single-64bit-int32-archfort-optimised-std-lcomp          |
 |                                                                    |
 | (C) 1996-2020 ANSYS, Inc.                                          |
 |                                                                    |
 | All rights reserved. Unauthorized use, distribution or duplication |
 | is prohibited. This product is subject to U.S. laws governing      |
 | export and re-export. For full Legal Notice, see documentation.    |
 +--------------------------------------------------------------------+




 +--------------------------------------------------------------------+
 |                  Job Information at Start of Run                   |
 +--------------------------------------------------------------------+

 Run mode:       serial run

 Host computer:  NODE02 (PID:9432)

 Job started:    Wed Oct 26 10:15:13 2022


 +--------------------------------------------------------------------+
 |        Memory Allocated for Run  (Actual usage may be less)        |
 +--------------------------------------------------------------------+

           | Real       | Integer    | Character | Logical  | Double
 ----------+------------+------------+-----------+----------+----------
 Mwords    |     173.26 |     223.09 |      0.64 |     0.01 |     0.36
 Mbytes    |     660.92 |     851.02 |      0.61 |     0.05 |     2.75
 ----------+------------+------------+-----------+----------+----------


 +--------------------------------------------------------------------+
 |                  Host Memory Information (Mbytes)                  |
 +--------------------------------------------------------------------+
 |          Host           |     System     |   Allocated    |   %    |
 +-------------------------+----------------+----------------+--------+
 | NODE02                  |    196256.70   |      1515.36   |   0.77 |
 +-------------------------+----------------+----------------+--------+

 ======================================================================
                   Interpolating Onto Domain "Cavity"
 ======================================================================

 Total Number of Nodes in the Target Domain              =       426926
 Bounding Box Volume of the Target Mesh                  =  3.17300E-04


 Checking all source domains from the source file:
   Target mesh is the same as domain "Cavity".

 Start direct copying of variables from domain "Cavity".

 +--------------------------------------------------------------------+
 |                     Variable Range Information                     |
 +--------------------------------------------------------------------+
 +--------------------------------------------------------------------+
 |      Variable Name                         |    min    |    max    |
 +--------------------------------------------------------------------+
 | Density.Beta                               |  3.58E-07 |  1.00E+00 |
 | Total Enthalpy.Beta                        |  2.14E-05 |  1.00E+00 |
 | Velocity u.Beta                            |  1.37E-06 |  1.00E+00 |
 | Velocity v.Beta                            |  2.38E-07 |  1.00E+00 |
 | Velocity w.Beta                            |  2.15E-06 |  1.00E+00 |
 | Polytropic Compression Efficiency          |  8.90E-03 |  1.00E+00 |
 | Isentropic Compression Efficiency          |  8.66E-03 |  1.00E+00 |
 | Isothermal Compressibility                 |  8.91E-06 |  1.36E-05 |
 | Thermal Conductivity                       |  2.52E-02 |  2.52E-02 |
 | Courant Number                             |  2.68E-02 |  9.83E+02 |
 | Density                                    |  8.14E-01 |  1.22E+00 |
 | Total Density in Rel Frame                 |  8.50E-01 |  1.41E+00 |
 | Total Density in Stn Frame                 |  8.50E-01 |  1.41E+00 |
 | Total Density                              |  8.50E-01 |  1.41E+00 |
 | Density Derivative wrt Pressure at Constant|  9.74E-06 |  1.34E-05 |
 | Static Enthalpy                            | -4.26E+04 |  5.56E+04 |
 | Rothalpy                                   | -1.51E+04 |  7.89E+04 |
 | Total Enthalpy in Stn Frame                | -1.51E+04 |  7.89E+04 |
 | Total Enthalpy                             | -1.51E+04 |  7.89E+04 |
 | Static Entropy                             |  6.81E+03 |  7.09E+03 |
 | Volume Porosity                            |  1.00E+00 |  1.00E+00 |
 | Density.Gradient                           |  4.13E-04 |  3.65E+03 |
 | Rothalpy.Gradient                          |  1.47E-01 |  4.64E+08 |
 | Total Enthalpy in Stn Frame.Gradient       |  1.47E-01 |  4.64E+08 |
 | Total Enthalpy.Gradient                    |  1.47E-01 |  4.64E+08 |
 | Pressure.Gradient                          |  1.42E+01 |  9.15E+07 |
 | Velocity u.Gradient                        |  5.75E+00 |  6.61E+06 |
 | Velocity v.Gradient                        |  4.14E+00 |  1.17E+07 |
 | Velocity w.Gradient                        |  8.41E-01 |  4.66E+06 |
 | Velocity in Stn Frame u.Gradient           |  5.75E+00 |  6.61E+06 |
 | Velocity in Stn Frame v.Gradient           |  4.14E+00 |  1.17E+07 |
 | Velocity in Stn Frame w.Gradient           |  8.41E-01 |  4.66E+06 |
 | Wall Scale.Gradient                        |  1.08E-05 |  2.58E-02 |
 | Isentropic Total Enthalpy                  | -3.49E+04 |  1.43E+04 |
 | Polytropic Total Enthalpy                  | -3.68E+04 |  1.61E+04 |
 | Mach Number in Stn Frame                   |  1.51E-05 |  7.46E-01 |
 | Mach Number                                |  1.51E-05 |  7.46E-01 |
 | Absolute Pressure                          |  7.37E+04 |  1.12E+05 |
 | Pressure                                   |  7.37E+04 |  1.12E+05 |
 | Total Pressure                             |  7.83E+04 |  1.41E+05 |
 | Total Pressure in Rel Frame                |  7.83E+04 |  1.41E+05 |
 | Total Pressure in Stn Frame                |  7.83E+04 |  1.41E+05 |
 | Real Partition Number                      |  1.00E+00 |  1.92E+02 |
 | Rotation Velocity                          |  0.00E+00 |  0.00E+00 |
 | Local Speed of Sound                       |  3.23E+02 |  3.79E+02 |
 | Specific Heat Capacity at Constant Pressure|  1.00E+03 |  1.01E+03 |
 | Specific Heat Capacity at Constant Volume  |  7.16E+02 |  7.23E+02 |
 | Specific Volume                            |  8.17E-01 |  1.23E+00 |
 | First Blending Function for BSL and SST mod|  1.63E-09 |  1.00E+00 |
 | Second Blending Function for SST model     |  1.61E-04 |  1.00E+00 |
 | Shear Strain Rate                          |  1.17E+02 |  1.20E+07 |
 | Turbulence Eddy Dissipation                |  4.13E+00 |  3.22E+09 |
 | Turbulence Eddy Frequency                  |  2.31E+03 |  2.28E+08 |
 | Temperature                                |  2.60E+02 |  3.58E+02 |
 | Turbulence Kinetic Energy                  |  1.19E-05 |  2.73E+03 |
 | Total Temperature in Rel Frame             |  2.87E+02 |  3.81E+02 |
 | Total Temperature in Stn Frame             |  2.87E+02 |  3.81E+02 |
 | Total Temperature                          |  2.87E+02 |  3.81E+02 |
 | Velocity in Stn Frame                      |  5.13E-03 |  2.50E+02 |
 | Velocity                                   |  5.13E-03 |  2.50E+02 |
 | Dynamic Viscosity                          |  1.79E-05 |  1.79E-05 |
 | Eddy Viscosity                             |  2.05E-12 |  8.94E-03 |
 | Wall Distance                              |  0.00E+00 |  1.49E-02 |
 | Wall Scale                                 | -7.35E-10 |  1.12E-04 |
 +--------------------------------------------------------------------+

 ======================================================================
                  Interpolating Onto Domain "Diffuser"
 ======================================================================

 Total Number of Nodes in the Target Domain              =       207756
 Bounding Box Volume of the Target Mesh                  =  3.84943E-05


 Checking all source domains from the source file:
   Target mesh is different from domain "Cavity".
   Target mesh is the same as domain "Diffuser".

 Start direct copying of variables from domain "Diffuser".

 +--------------------------------------------------------------------+
 |                     Variable Range Information                     |
 +--------------------------------------------------------------------+
 +--------------------------------------------------------------------+
 |      Variable Name                         |    min    |    max    |
 +--------------------------------------------------------------------+
 | Density.Beta                               |  5.19E-06 |  1.00E+00 |
 | Total Enthalpy.Beta                        |  6.97E-06 |  1.00E+00 |
 | Velocity u.Beta                            |  5.07E-06 |  1.00E+00 |
 | Velocity v.Beta                            |  3.81E-06 |  1.00E+00 |
 | Velocity w.Beta                            |  5.72E-06 |  1.00E+00 |
 | Polytropic Compression Efficiency          |  1.15E-02 |  1.00E+00 |
 | Isentropic Compression Efficiency          |  1.14E-02 |  1.00E+00 |
 | Isothermal Compressibility                 |  6.58E-06 |  1.67E-05 |
 | Thermal Conductivity                       |  2.52E-02 |  2.52E-02 |
 | Courant Number                             |  1.19E-01 |  1.07E+04 |
 | Density                                    |  6.77E-01 |  1.63E+00 |
 | Total Density in Rel Frame                 |  6.93E-01 |  1.65E+00 |
 | Total Density in Stn Frame                 |  6.93E-01 |  1.65E+00 |
 | Total Density                              |  6.93E-01 |  1.65E+00 |
 | Density Derivative wrt Pressure at Constant|  1.05E-05 |  1.28E-05 |
 | Static Enthalpy                            | -3.01E+04 |  2.96E+04 |
 | Rothalpy                                   |  1.01E+04 |  3.14E+04 |
 | Total Enthalpy in Stn Frame                |  1.01E+04 |  3.14E+04 |
 | Total Enthalpy                             |  1.01E+04 |  3.14E+04 |
 | Static Entropy                             |  6.82E+03 |  7.06E+03 |
 | Volume Porosity                            |  1.00E+00 |  1.00E+00 |
 | Density.Gradient                           |  2.48E-01 |  9.92E+03 |
 | Rothalpy.Gradient                          |  2.20E+03 |  5.52E+08 |
 | Total Enthalpy in Stn Frame.Gradient       |  2.20E+03 |  5.52E+08 |
 | Total Enthalpy.Gradient                    |  2.20E+03 |  5.52E+08 |
 | Pressure.Gradient                          |  6.84E+03 |  7.21E+08 |
 | Velocity u.Gradient                        |  2.47E+02 |  8.41E+06 |
 | Velocity v.Gradient                        |  2.13E+02 |  6.98E+06 |
 | Velocity w.Gradient                        |  7.83E+01 |  8.27E+06 |
 | Velocity in Stn Frame u.Gradient           |  2.47E+02 |  8.41E+06 |
 | Velocity in Stn Frame v.Gradient           |  2.13E+02 |  6.98E+06 |
 | Velocity in Stn Frame w.Gradient           |  7.83E+01 |  8.27E+06 |
 | Wall Scale.Gradient                        |  1.27E-05 |  6.90E-02 |
 | Isentropic Total Enthalpy                  | -5.15E+04 |  2.15E+04 |
 | Polytropic Total Enthalpy                  | -5.59E+04 |  2.15E+04 |
 | Mach Number in Stn Frame                   |  2.02E-05 |  9.41E-01 |
 | Mach Number                                |  2.02E-05 |  9.41E-01 |
 | Absolute Pressure                          |  5.98E+04 |  1.52E+05 |
 | Pressure                                   |  5.98E+04 |  1.52E+05 |
 | Total Pressure                             |  6.27E+04 |  1.52E+05 |
 | Total Pressure in Rel Frame                |  6.27E+04 |  1.52E+05 |
 | Total Pressure in Stn Frame                |  6.27E+04 |  1.52E+05 |
 | Real Partition Number                      |  1.00E+00 |  1.92E+02 |
 | Rotation Velocity                          |  0.00E+00 |  0.00E+00 |
 | Local Speed of Sound                       |  3.31E+02 |  3.65E+02 |
 | Specific Heat Capacity at Constant Pressure|  1.00E+03 |  1.01E+03 |
 | Specific Heat Capacity at Constant Volume  |  7.17E+02 |  7.20E+02 |
 | Specific Volume                            |  6.14E-01 |  1.48E+00 |
 | First Blending Function for BSL and SST mod|  6.32E-06 |  1.00E+00 |
 | Second Blending Function for SST model     |  4.66E-02 |  1.00E+00 |
 | Shear Strain Rate                          |  1.23E+03 |  1.09E+07 |
 | Turbulence Eddy Dissipation                |  3.52E+03 |  4.76E+09 |
 | Turbulence Eddy Frequency                  |  3.59E+04 |  1.41E+08 |
 | Temperature                                |  2.73E+02 |  3.32E+02 |
 | Turbulence Kinetic Energy                  |  7.15E-04 |  3.88E+03 |
 | Total Temperature in Rel Frame             |  3.12E+02 |  3.34E+02 |
 | Total Temperature in Stn Frame             |  3.12E+02 |  3.34E+02 |
 | Total Temperature                          |  3.12E+02 |  3.34E+02 |
 | Velocity in Stn Frame                      |  7.36E-03 |  3.12E+02 |
 | Velocity                                   |  7.36E-03 |  3.12E+02 |
 | Dynamic Viscosity                          |  1.79E-05 |  1.79E-05 |
 | Eddy Viscosity                             |  1.56E-11 |  1.58E-02 |
 | Wall Distance                              |  0.00E+00 |  1.05E-02 |
 | Wall Scale                                 | -1.99E-09 |  7.43E-05 |
 +--------------------------------------------------------------------+

 ======================================================================
                 Interpolating Onto Domain "Diffuser2"
 ======================================================================

 Total Number of Nodes in the Target Domain              =       217476
 Bounding Box Volume of the Target Mesh                  =  5.57124E-05


 Checking all source domains from the source file:
   Target mesh is different from domain "Cavity".
   Target mesh is different from domain "Diffuser".
   Target mesh is the same as domain "Diffuser2".

 Start direct copying of variables from domain "Diffuser2".

 +--------------------------------------------------------------------+
 |                     Variable Range Information                     |
 +--------------------------------------------------------------------+
 +--------------------------------------------------------------------+
 |      Variable Name                         |    min    |    max    |
 +--------------------------------------------------------------------+
 | Density.Beta                               |  5.13E-06 |  1.00E+00 |
 | Total Enthalpy.Beta                        |  9.67E-05 |  1.00E+00 |
 | Velocity u.Beta                            |  4.35E-06 |  1.00E+00 |
 | Velocity v.Beta                            |  1.11E-05 |  1.00E+00 |
 | Velocity w.Beta                            |  8.52E-06 |  1.00E+00 |
 | Polytropic Compression Efficiency          |  1.23E-02 |  1.00E+00 |
 | Isentropic Compression Efficiency          |  1.23E-02 |  1.00E+00 |
 | Isothermal Compressibility                 |  6.70E-06 |  1.42E-05 |
 | Thermal Conductivity                       |  2.52E-02 |  2.52E-02 |
 | Courant Number                             |  1.07E-01 |  2.33E+03 |
 | Density                                    |  7.90E-01 |  1.61E+00 |
 | Total Density in Rel Frame                 |  7.96E-01 |  1.61E+00 |
 | Total Density in Stn Frame                 |  7.96E-01 |  1.61E+00 |
 | Total Density                              |  7.96E-01 |  1.61E+00 |
 | Density Derivative wrt Pressure at Constant|  1.05E-05 |  1.24E-05 |
 | Static Enthalpy                            | -2.15E+04 |  2.95E+04 |
 | Rothalpy                                   |  1.30E+04 |  2.98E+04 |
 | Total Enthalpy in Stn Frame                |  1.30E+04 |  2.98E+04 |
 | Total Enthalpy                             |  1.30E+04 |  2.98E+04 |
 | Static Entropy                             |  6.83E+03 |  7.05E+03 |
 | Volume Porosity                            |  1.00E+00 |  1.00E+00 |
 | Density.Gradient                           |  4.62E-02 |  1.09E+04 |
 | Rothalpy.Gradient                          |  3.86E+03 |  4.65E+08 |
 | Total Enthalpy in Stn Frame.Gradient       |  3.86E+03 |  4.65E+08 |
 | Total Enthalpy.Gradient                    |  3.86E+03 |  4.65E+08 |
 | Pressure.Gradient                          |  1.79E+03 |  6.38E+08 |
 | Velocity u.Gradient                        |  4.92E+01 |  7.66E+06 |
 | Velocity v.Gradient                        |  5.46E+01 |  3.61E+06 |
 | Velocity w.Gradient                        |  1.05E+02 |  9.31E+06 |
 | Velocity in Stn Frame u.Gradient           |  4.92E+01 |  7.66E+06 |
 | Velocity in Stn Frame v.Gradient           |  5.46E+01 |  3.61E+06 |
 | Velocity in Stn Frame w.Gradient           |  1.05E+02 |  9.31E+06 |
 | Wall Scale.Gradient                        |  1.34E-05 |  9.55E-02 |
 | Isentropic Total Enthalpy                  | -3.95E+04 |  2.08E+04 |
 | Polytropic Total Enthalpy                  | -4.20E+04 |  2.10E+04 |
 | Mach Number in Stn Frame                   |  1.92E-05 |  8.47E-01 |
 | Mach Number                                |  1.92E-05 |  8.47E-01 |
 | Absolute Pressure                          |  7.07E+04 |  1.49E+05 |
 | Pressure                                   |  7.07E+04 |  1.49E+05 |
 | Total Pressure                             |  7.37E+04 |  1.51E+05 |
 | Total Pressure in Rel Frame                |  7.37E+04 |  1.51E+05 |
 | Total Pressure in Stn Frame                |  7.37E+04 |  1.51E+05 |
 | Real Partition Number                      |  1.00E+00 |  1.92E+02 |
 | Rotation Velocity                          |  0.00E+00 |  0.00E+00 |
 | Local Speed of Sound                       |  3.36E+02 |  3.65E+02 |
 | Specific Heat Capacity at Constant Pressure|  1.00E+03 |  1.01E+03 |
 | Specific Heat Capacity at Constant Volume  |  7.17E+02 |  7.20E+02 |
 | Specific Volume                            |  6.23E-01 |  1.27E+00 |
 | First Blending Function for BSL and SST mod|  2.29E-06 |  1.00E+00 |
 | Second Blending Function for SST model     |  3.61E-02 |  1.00E+00 |
 | Shear Strain Rate                          |  8.52E+02 |  1.07E+07 |
 | Turbulence Eddy Dissipation                |  9.88E+02 |  3.43E+09 |
 | Turbulence Eddy Frequency                  |  2.55E+04 |  1.41E+08 |
 | Temperature                                |  2.81E+02 |  3.32E+02 |
 | Turbulence Kinetic Energy                  |  1.45E-04 |  3.78E+03 |
 | Total Temperature in Rel Frame             |  3.15E+02 |  3.32E+02 |
 | Total Temperature in Stn Frame             |  3.15E+02 |  3.32E+02 |
 | Total Temperature                          |  3.15E+02 |  3.32E+02 |
 | Velocity in Stn Frame                      |  7.00E-03 |  2.85E+02 |
 | Velocity                                   |  7.00E-03 |  2.85E+02 |
 | Dynamic Viscosity                          |  1.79E-05 |  1.79E-05 |
 | Eddy Viscosity                             |  2.34E-12 |  1.45E-02 |
 | Wall Distance                              |  0.00E+00 |  1.55E-02 |
 | Wall Scale                                 | -5.24E-10 |  1.26E-04 |
 +--------------------------------------------------------------------+

 ======================================================================
                  Interpolating Onto Domain "Impeller"
 ======================================================================

 Total Number of Nodes in the Target Domain              =      3013598
 Bounding Box Volume of the Target Mesh                  =  3.88392E-04


 Checking all source domains from the source file:
   Target domain motion is different from domain "Cavity".
   Target domain motion is different from domain "Diffuser".
   Target domain motion is different from domain "Diffuser2".
   Target mesh is the same as domain "Impeller".

 Start direct copying of variables from domain "Impeller".

 +--------------------------------------------------------------------+
 |                     Variable Range Information                     |
 +--------------------------------------------------------------------+
 +--------------------------------------------------------------------+
 |      Variable Name                         |    min    |    max    |
 +--------------------------------------------------------------------+
 | Density.Beta                               |  1.07E-06 |  1.00E+00 |
 | Rothalpy.Beta                              |  0.00E+00 |  1.00E+00 |
 | Velocity in Stn Frame u.Beta               |  1.67E-06 |  1.00E+00 |
 | Velocity in Stn Frame v.Beta               |  4.77E-07 |  1.00E+00 |
 | Velocity in Stn Frame w.Beta               |  2.26E-06 |  1.00E+00 |
 | Polytropic Compression Efficiency          |  8.25E-04 |  1.00E+00 |
 | Isentropic Compression Efficiency          |  8.21E-04 |  1.00E+00 |
 | Isothermal Compressibility                 |  4.04E-06 |  2.97E-05 |
 | Thermal Conductivity                       |  2.52E-02 |  2.52E-02 |
 | Courant Number                             |  4.41E-01 |  1.03E+05 |
 | Density                                    |  3.35E-01 |  2.31E+00 |
 | Total Density in Rel Frame                 |  3.36E-01 |  2.77E+00 |
 | Total Density in Stn Frame                 |  4.12E-01 |  4.10E+00 |
 | Total Density                              |  1.62E-01 |  1.57E+00 |
 | Density Derivative wrt Pressure at Constant|  8.86E-06 |  1.57E-05 |
 | Static Enthalpy                            | -8.03E+04 |  9.15E+04 |
 | Rothalpy                                   | -4.85E+04 |  8.38E+04 |
 | Total Enthalpy in Stn Frame                | -6.24E+04 |  1.81E+05 |
 | Total Enthalpy                             | -1.44E+04 |  1.73E+05 |
 | Static Entropy                             |  6.82E+03 |  7.35E+03 |
 | Volume Porosity                            |  1.00E+00 |  1.00E+00 |
 | Density.Gradient                           |  6.91E-03 |  8.17E+04 |
 | Rothalpy.Gradient                          |  4.58E+00 |  1.35E+10 |
 | Pressure.Gradient                          |  7.07E+02 |  5.32E+09 |
 | Velocity u.Gradient                        |  1.01E+02 |  1.56E+08 |
 | Velocity v.Gradient                        |  1.45E+02 |  1.30E+08 |
 | Velocity w.Gradient                        |  3.42E+00 |  1.28E+08 |
[...]
 | O-TurbFreq-Impeller  | Physical Timescale    |     3.03136E-01     |
 | K-TurbKE-Diffuser    | Physical Timescale    |     3.72648E-01     |
 | O-TurbFreq-Diffuser  | Physical Timescale    |     3.72648E-01     |
 | K-TurbKE-Diffuser2   | Physical Timescale    |     3.72648E-01     |
 | O-TurbFreq-Diffuser2 | Physical Timescale    |     3.72648E-01     |
 | K-TurbKE-Impeller2   | Physical Timescale    |     3.72648E-01     |
 | O-TurbFreq-Impeller2 | Physical Timescale    |     3.72648E-01     |
 | K-TurbKE-Pipe Diff   | Physical Timescale    |     3.72648E-01     |
 | O-TurbFreq-Pipe Diff | Physical Timescale    |     3.72648E-01     |
 +----------------------+-----------------------+---------------------+

 +--------------------------------------------------------------------+
 |                     Average Scale Information                      |
 +--------------------------------------------------------------------+

 Domain Name : Cavity
     Global Length                                         = 5.4443E-02
     Minimum Extent                                        = 4.7310E-02
     Maximum Extent                                        = 1.0189E-01
     Density                                               = 1.1573E+00
     Dynamic Viscosity                                     = 1.7900E-05
     Velocity                                              = 6.0553E+01
     Advection Time                                        = 8.9910E-04
     Reynolds Number                                       = 2.1314E+05
     Speed of Sound                                        = 3.4641E+02
     Mach Number                                           = 1.7480E-01
     Thermal Conductivity                                  = 2.5200E-02
     Specific Heat Capacity at Constant Pressure           = 1.0051E+03
     Specific Heat Capacity at Constant Volume             = 7.1795E+02
     Specific Heat Ratio                                   = 1.3999E+00
     Prandtl Number                                        = 7.1391E-01
     Temperature Range                                     = 1.0631E+02

 Domain Name : Diffuser
     Global Length                                         = 2.6544E-02
     Minimum Extent                                        = 2.6395E-02
     Maximum Extent                                        = 3.9873E-02
     Density                                               = 1.2918E+00
     Dynamic Viscosity                                     = 1.7900E-05
     Velocity                                              = 1.5758E+02
     Advection Time                                        = 1.6844E-04
     Reynolds Number                                       = 3.0187E+05
     Speed of Sound                                        = 3.5726E+02
     Mach Number                                           = 4.4109E-01
     Thermal Conductivity                                  = 2.5200E-02
     Specific Heat Capacity at Constant Pressure           = 1.0063E+03
     Specific Heat Capacity at Constant Volume             = 7.1925E+02
     Specific Heat Ratio                                   = 1.3992E+00
     Prandtl Number                                        = 7.1483E-01
     Temperature Range                                     = 6.3766E+01

 Domain Name : Diffuser2
     Global Length                                         = 3.0154E-02
     Minimum Extent                                        = 2.0673E-02
     Maximum Extent                                        = 5.8981E-02
     Density                                               = 1.3462E+00
     Dynamic Viscosity                                     = 1.7900E-05
     Velocity                                              = 1.1275E+02
     Advection Time                                        = 2.6743E-04
     Reynolds Number                                       = 2.5570E+05
     Speed of Sound                                        = 3.6023E+02
     Mach Number                                           = 3.1300E-01
     Thermal Conductivity                                  = 2.5200E-02
     Specific Heat Capacity at Constant Pressure           = 1.0067E+03
     Specific Heat Capacity at Constant Volume             = 7.1956E+02
     Specific Heat Ratio                                   = 1.3990E+00
     Prandtl Number                                        = 7.1505E-01
     Temperature Range                                     = 5.1125E+01

 Domain Name : Impeller
     Global Length                                         = 4.9924E-02
     Minimum Extent                                        = 5.7255E-02
     Maximum Extent                                        = 9.1500E-02
     Density                                               = 1.0716E+00
     Dynamic Viscosity                                     = 1.7900E-05
     Velocity                                              = 2.3553E+02
     Advection Time                                        = 2.1197E-04
     Reynolds Number                                       = 7.0391E+05
     Speed of Sound                                        = 3.5949E+02
     Mach Number                                           = 6.5516E-01
     Thermal Conductivity                                  = 2.5200E-02
     Specific Heat Capacity at Constant Pressure           = 1.0071E+03
     Specific Heat Capacity at Constant Volume             = 7.1998E+02
     Specific Heat Ratio                                   = 1.3988E+00
     Prandtl Number                                        = 7.1535E-01
     Temperature Range                                     = 1.9686E+02

 Domain Name : Impeller2
     Global Length                                         = 4.2636E-02
     Minimum Extent                                        = 5.6613E-02
     Maximum Extent                                        = 9.3356E-02
     Density                                               = 1.8175E+00
     Dynamic Viscosity                                     = 1.7900E-05
     Velocity                                              = 2.3244E+02
     Advection Time                                        = 1.8343E-04
     Reynolds Number                                       = 1.0063E+06
     Speed of Sound                                        = 3.8320E+02
     Mach Number                                           = 6.0658E-01
     Thermal Conductivity                                  = 2.5200E-02
     Specific Heat Capacity at Constant Pressure           = 1.0118E+03
     Specific Heat Capacity at Constant Volume             = 7.2475E+02
     Specific Heat Ratio                                   = 1.3961E+00
     Prandtl Number                                        = 7.1873E-01
     Temperature Range                                     = 3.2776E+02

 Domain Name : Pipe Diff
     Global Length                                         = 2.9785E-02
     Minimum Extent                                        = 5.7629E-02
     Maximum Extent                                        = 8.0640E-02
     Density                                               = 3.5065E+00
     Dynamic Viscosity                                     = 1.7900E-05
     Velocity                                              = 2.2724E+02
     Advection Time                                        = 1.3107E-04
     Reynolds Number                                       = 1.3259E+06
     Speed of Sound                                        = 4.6056E+02
     Mach Number                                           = 4.9340E-01
     Thermal Conductivity                                  = 2.5200E-02
     Specific Heat Capacity at Constant Pressure           = 1.0373E+03
     Specific Heat Capacity at Constant Volume             = 7.5018E+02
     Specific Heat Ratio                                   = 1.3827E+00
     Prandtl Number                                        = 7.3680E-01
     Temperature Range                                     = 2.9117E+02

 +--------------------------------------------------------------------+
 |                     Variable Range Information                     |
 +--------------------------------------------------------------------+

 Domain Name : Cavity
 +--------------------------------------------------------------------+
 |      Variable Name                         |    min    |    max    |
 +--------------------------------------------------------------------+
 | Density                                    |  7.72E-01 |  1.22E+00 |
 | Specific Heat Capacity at Constant Pressure|  1.00E+03 |  1.01E+03 |
 | Dynamic Viscosity                          |  1.79E-05 |  1.79E-05 |
 | Thermal Conductivity                       |  2.52E-02 |  2.52E-02 |
 | Isothermal Compressibility                 |  8.64E-06 |  1.40E-05 |
 | Static Entropy                             |  6.83E+03 |  7.15E+03 |
 | Velocity u                                 | -3.12E+02 |  9.95E+01 |
 | Velocity v                                 | -2.30E+02 |  1.90E+02 |
 | Velocity w                                 | -1.69E+02 |  1.37E+02 |
 | Pressure                                   |  7.15E+04 |  1.16E+05 |
 | Turbulence Kinetic Energy                  |  4.78E-06 |  6.84E+03 |
 | Turbulence Eddy Frequency                  |  2.20E+03 |  2.13E+08 |
 | Eddy Viscosity                             |  1.11E-12 |  1.12E-02 |
 | Temperature                                |  2.76E+02 |  3.82E+02 |
 | Static Enthalpy                            | -2.70E+04 |  8.01E+04 |
 | Total Enthalpy                             | -1.46E+04 |  1.12E+05 |
 | Wall Scale                                 | -7.35E-10 |  1.12E-04 |
 | Wall Distance                              |  0.00E+00 |  1.49E-02 |
 +--------------------------------------------------------------------+

 Domain Name : Diffuser
 +--------------------------------------------------------------------+
 |      Variable Name                         |    min    |    max    |
 +--------------------------------------------------------------------+
 | Density                                    |  8.25E-01 |  1.67E+00 |
 | Specific Heat Capacity at Constant Pressure|  1.00E+03 |  1.01E+03 |
 | Dynamic Viscosity                          |  1.79E-05 |  1.79E-05 |
 | Thermal Conductivity                       |  2.52E-02 |  2.52E-02 |
 | Isothermal Compressibility                 |  6.35E-06 |  1.35E-05 |
 | Static Entropy                             |  6.82E+03 |  7.01E+03 |
 | Velocity u                                 | -2.53E+02 |  8.72E+01 |
 | Velocity v                                 | -1.57E+02 |  1.10E+02 |
 | Velocity w                                 | -8.00E+01 |  2.44E+02 |
 | Pressure                                   |  7.38E+04 |  1.58E+05 |
 | Turbulence Kinetic Energy                  |  4.56E-04 |  2.56E+03 |
 | Turbulence Eddy Frequency                  |  3.25E+04 |  1.24E+08 |
 | Eddy Viscosity                             |  9.72E-12 |  7.61E-03 |
 | Temperature                                |  2.82E+02 |  3.45E+02 |
 | Static Enthalpy                            | -2.10E+04 |  4.32E+04 |
 | Total Enthalpy                             |  1.31E+04 |  4.35E+04 |
 | Wall Scale                                 | -1.99E-09 |  7.43E-05 |
 | Wall Distance                              |  0.00E+00 |  1.05E-02 |
 +--------------------------------------------------------------------+

 Domain Name : Diffuser2
 +--------------------------------------------------------------------+
 |      Variable Name                         |    min    |    max    |
 +--------------------------------------------------------------------+
 | Density                                    |  9.05E-01 |  1.65E+00 |
 | Specific Heat Capacity at Constant Pressure|  1.00E+03 |  1.01E+03 |
 | Dynamic Viscosity                          |  1.79E-05 |  1.79E-05 |
 | Thermal Conductivity                       |  2.52E-02 |  2.52E-02 |
 | Isothermal Compressibility                 |  6.47E-06 |  1.17E-05 |
 | Static Entropy                             |  6.83E+03 |  7.03E+03 |
 | Velocity u                                 | -1.90E+02 |  5.04E+01 |
 | Velocity v                                 | -7.69E+01 |  6.94E+01 |
 | Velocity w                                 | -9.14E+01 |  2.32E+02 |
 | Pressure                                   |  8.54E+04 |  1.54E+05 |
 | Turbulence Kinetic Energy                  |  7.79E-05 |  3.63E+03 |
 | Turbulence Eddy Frequency                  |  2.25E+04 |  1.18E+08 |
 | Eddy Viscosity                             |  1.37E-12 |  6.73E-03 |
 | Temperature                                |  2.92E+02 |  3.43E+02 |
 | Static Enthalpy                            | -1.02E+04 |  4.13E+04 |
 | Total Enthalpy                             |  1.60E+04 |  4.21E+04 |
 | Wall Scale                                 | -5.24E-10 |  1.26E-04 |
 | Wall Distance                              |  0.00E+00 |  1.55E-02 |
 +--------------------------------------------------------------------+

 Domain Name : Impeller
 +--------------------------------------------------------------------+
 |      Variable Name                         |    min    |    max    |
 +--------------------------------------------------------------------+
 | Density                                    |  3.44E-01 |  2.31E+00 |
 | Specific Heat Capacity at Constant Pressure|  1.00E+03 |  1.02E+03 |
 | Dynamic Viscosity                          |  1.79E-05 |  1.79E-05 |
 | Thermal Conductivity                       |  2.52E-02 |  2.52E-02 |
 | Isothermal Compressibility                 |  4.04E-06 |  2.89E-05 |
 | Static Entropy                             |  6.82E+03 |  7.34E+03 |
 | Velocity u                                 | -5.57E+01 |  4.91E+02 |
 | Velocity v                                 | -2.74E+02 |  2.98E+02 |
 | Velocity w                                 | -2.49E+02 |  3.11E+02 |
 | Pressure                                   |  3.46E+04 |  2.47E+05 |
 | Turbulence Kinetic Energy                  |  9.31E-07 |  1.04E+04 |
 | Turbulence Eddy Frequency                  |  2.48E+04 |  3.10E+11 |
 | Eddy Viscosity                             |  1.00E-17 |  1.53E-02 |
 | Temperature                                |  2.25E+02 |  4.22E+02 |
 | Static Enthalpy                            | -7.76E+04 |  1.21E+05 |
 | Total Enthalpy                             | -1.44E+04 |  1.95E+05 |
 | Wall Scale                                 | -2.58E-10 |  7.04E-04 |
 | Wall Distance                              |  0.00E+00 |  3.75E-02 |
 +--------------------------------------------------------------------+

 Domain Name : Impeller2
 +--------------------------------------------------------------------+
 |      Variable Name                         |    min    |    max    |
 +--------------------------------------------------------------------+
 | Density                                    |  4.66E-01 |  3.39E+00 |
 | Specific Heat Capacity at Constant Pressure|  1.00E+03 |  1.05E+03 |
 | Dynamic Viscosity                          |  1.79E-05 |  1.79E-05 |
 | Thermal Conductivity                       |  2.52E-02 |  2.52E-02 |
 | Isothermal Compressibility                 |  2.28E-06 |  2.15E-05 |
 | Static Entropy                             |  6.83E+03 |  7.25E+03 |
 | Velocity u                                 | -8.89E+01 |  4.31E+02 |
 | Velocity v                                 | -4.97E+02 |  2.01E+02 |
 | Velocity w                                 | -2.06E+02 |  2.78E+02 |
 | Pressure                                   |  4.65E+04 |  4.39E+05 |
 | Turbulence Kinetic Energy                  |  7.64E-02 |  1.57E+04 |
 | Turbulence Eddy Frequency                  |  2.81E+04 |  1.67E+07 |
 | Eddy Viscosity                             |  6.67E-08 |  8.70E-02 |
 | Temperature                                |  2.61E+02 |  5.88E+02 |
 | Static Enthalpy                            | -4.19E+04 |  2.93E+05 |
 | Total Enthalpy                             |  2.56E+04 |  4.18E+05 |
 | Wall Scale                                 | -6.38E-09 |  1.27E-04 |
 | Wall Distance                              |  0.00E+00 |  1.57E-02 |
 +--------------------------------------------------------------------+

 Domain Name : Pipe Diff
 +--------------------------------------------------------------------+
 |      Variable Name                         |    min    |    max    |
 +--------------------------------------------------------------------+
 | Density                                    |  3.48E-01 |  5.32E+00 |
 | Specific Heat Capacity at Constant Pressure|  1.00E+03 |  1.05E+03 |
 | Dynamic Viscosity                          |  1.79E-05 |  1.79E-05 |
 | Thermal Conductivity                       |  2.52E-02 |  2.52E-02 |
 | Isothermal Compressibility                 |  1.15E-06 |  1.94E-05 |
 | Static Entropy                             |  6.84E+03 |  7.63E+03 |
 | Velocity u                                 | -5.00E+02 |  8.33E+01 |
 | Velocity v                                 | -1.49E+02 |  6.16E+02 |
 | Velocity w                                 | -3.85E+02 |  3.64E+02 |
 | Pressure                                   |  5.16E+04 |  8.73E+05 |
 | Turbulence Kinetic Energy                  |  5.85E-03 |  2.16E+04 |
 | Turbulence Eddy Frequency                  |  2.33E+04 |  1.09E+11 |
 | Eddy Viscosity                             |  3.79E-14 |  1.30E-01 |
 | Temperature                                |  2.93E+02 |  5.85E+02 |
 | Static Enthalpy                            | -9.15E+03 |  2.88E+05 |
 | Total Enthalpy                             |  2.10E+05 |  2.90E+05 |
 | Wall Scale                                 | -2.42E-08 |  1.84E-05 |
 | Wall Distance                              |  0.00E+00 |  5.93E-03 |
 +--------------------------------------------------------------------+

 +--------------------------------------------------------------------+
 |           CPU Requirements of Numerical Solution - Total           |
 +--------------------------------------------------------------------+

 Subsystem Name                  Discretization       Linear Solution
                                (secs.   %total)     (secs.   %total) 
 ----------------------------------------------------------------------
 Momentum and Mass              7.03E+04  36.0 %     2.23E+04  11.4 %
 Heat Transfer                  1.96E+04  10.1 %     9.62E+03   4.9 %
 TurbKE and TurbFreq            2.02E+04  10.3 %     1.72E+04   8.8 %
                                -------- -------     --------  ------
 Subsystem Summary              1.10E+05  56.4 %     4.91E+04  25.2 %

 GGI Intersection               4.99E+01    0.0 %
 File Reading                   1.84E+03    0.9 %
 Search Calculations            6.41E+01    0.0 %
 Variable Updates               2.25E+04   11.6 %
 File Writing                   2.79E+03    1.4 %
 Miscellaneous                  8.64E+03    4.4 %
                                --------
 Total                          1.95E+05

 +--------------------------------------------------------------------+
 |                   Job Information at End of Run                    |
 +--------------------------------------------------------------------+

 Job finished:   Wed Oct 26 10:33:00 2022

 Total wall clock time: 1.013E+03 seconds
             or: (          0:         0:        16:    52.772 )
                 (       Days:     Hours:   Minutes:   Seconds )



 --> Final synchronization point reached by all partitions.
End of solution stage.

 +--------------------------------------------------------------------+
 | The results from this run of the ANSYS CFX Solver have been        |
 | written to \\NODE01\ANSYS                                          |
 | WORK\KISLOV\OPEN2_AM_IF_WITH_PIPE\BL7_AM_Hub_Tipcl_GV1_v1_GV2_v1_- |
 | Impeller_Final_Pipe_100prct_w1_001.res                             |
 +--------------------------------------------------------------------+

